current_out.csv
# current_out.csv run at 1999-12-31 19:00:00 EST on 26 links
link_name,currA_mag,currA_angle,currB_mag,currB_angle,currC_mag,currC_angle
sourceton111,0.000000,-0.683591,0.000000,3.299540,0.000000,0.151399
n111ton125,0.000000,-0.683374,0.000000,3.299542,0.000000,0.151404
s36,0.000000,-0.785398,0.000000,2.819842,0.000000,0.000000
f27,0.000000,2.356194,0.000000,0.785398,0.000000,0.785398
f28,0.000000,2.356194,0.000000,2.356194,0.000000,-0.785398
t11,0.000000,1.267990,0.000000,1.721297,0.000000,-0.179413
f_n130tom_t11,0.000000,0.000000,0.000000,0.000000,0.000000,0.000000
